Version 4
SHEET 1 880 680
WIRE 128 112 80 112
WIRE 240 112 208 112
WIRE 320 112 240 112
WIRE 240 128 240 112
WIRE 464 128 384 128
WIRE 320 144 304 144
WIRE 80 160 80 112
WIRE 512 176 512 160
WIRE 592 176 512 176
WIRE 512 192 512 176
WIRE 240 208 240 192
WIRE 592 208 592 176
WIRE 304 224 304 144
WIRE 384 224 304 224
WIRE 464 224 464 128
WIRE 80 256 80 240
FLAG 80 256 0
FLAG 240 208 0
FLAG 304 304 0
FLAG 592 208 0
FLAG 352 96 vcc
FLAG 512 80 vcc
FLAG 352 160 vee
FLAG 512 272 vee
SYMBOL voltage 80 144 R0
WINDOW 123 24 124 Left 2
WINDOW 39 0 0 Left 0
SYMATTR InstName V1
SYMATTR Value SINE(0 1 1k)
SYMATTR Value2 AC 1
SYMBOL res 224 96 R90
WINDOW 0 0 56 VBottom 2
WINDOW 3 32 56 VTop 2
SYMATTR InstName R1
SYMATTR Value 20k
SYMBOL cap 224 128 R0
SYMATTR InstName C1
SYMATTR Value 47n
SYMBOL Opamps\\UniversalOpamp2 352 128 R0
SYMATTR InstName U1
SYMBOL res 288 208 R0
SYMATTR InstName R2
SYMATTR Value 1k
SYMBOL res 480 208 R90
WINDOW 0 0 56 VBottom 2
WINDOW 3 32 56 VTop 2
SYMATTR InstName R3
SYMATTR Value 10k
SYMBOL voltage 512 64 R0
WINDOW 123 0 0 Left 0
WINDOW 39 0 0 Left 0
SYMATTR InstName V2
SYMATTR Value 14
SYMBOL voltage 512 176 R0
WINDOW 123 0 0 Left 0
WINDOW 39 0 0 Left 0
SYMATTR InstName V3
SYMATTR Value 14
TEXT 46 360 Left 2 !.ac dec 10 10 30k
